RUNSPEC

OIL
GAS

METRIC

GRID

PROPS
PVTO
--     Rs       Pbub       Bo        Vo
--  sm3/sm3     barsa     rm3/sm3   cP
      .0         1.0133   1.0000     1.20  /
    29.37       27.58     1.0120     1.17  /
    59.63       55.16     1.0255     1.14  /
    89.00       82.74     1.0380     1.11  /
   118.37      110.32     1.0510     1.08  /
   147.39      137.90     1.0630     1.06  /
   175.34      165.48     1.0750     1.03   
               193.06     1.0700     1.03  
               220.64     1.0650     1.03  / Undersaturated oil Rs=175.34
   201.15      193.06     1.0870     1.00  /
   226.07      220.64     1.0985      .98  /
   247.43      248.22     1.1100      .95  /
   267.17      275.81     1.1200      .94
               344.76     1.1189      .94  / Undersaturated oil Rs=267.17
/

PVDG
--    Pg        Bg       Vg
--   barsa      rm3/sm3   cP
     1.0133     1.0      .0125
    27.58       0.0308   .0130
    55.16       0.0153   .0135
    82.74       0.0102   .0140
   110.32       0.00766  .0145
   137.90       0.00615  .0150
   165.48       0.00511  .0155
   193.06       0.00438  .0160
   220.64       0.00386  .0165
   248.22       0.00339  .0170
   275.81       0.00305  .0175  
/

DENSITY
 881.2      1038     0.761
/


SWOF
 0.00000      0.00000      1.00000      0.00000
 1.00000      1.00000      0.00000      0.00000
/

SGOF
 0.00000      0.00000      1.00000      0.00000
 1.00000      1.00000      0.00000      0.00000
/


PVTW
  100 1  0  0.5  0.0
/
