NOECHO

RUNSPEC   ===============================================================

TITLE
SPE 9TH COMPARATIVE STUDY WITH 2 wells instead of 27
--  3D heterogeneous study

DIMENS
   24   1   15  /

NONNC

OIL

WATER

GAS

DISGAS

FIELD

TABDIMS
    1    1   40   20    1   20  /

WELLDIMS
   30   10    2   30 /

START
   1 'JAN' 1990  /

NSTACK
   25 /

GRID      ===============================================================

--INIT
SPECGRID
24 1 15 1 F 
/

COORD
0 0 0       0 0 9332.55
300 0 0       300 0 9332.55
600 0 0       600 0 9332.55
900 0 0       900 0 9332.55
1200 0 0       1200 0 9332.55
1500 0 0       1500 0 9332.55
1800 0 0       1800 0 9332.55
2100 0 0       2100 0 9332.55
2400 0 0       2400 0 9332.55
2700 0 0       2700 0 9332.55
3000 0 0       3000 0 9332.55
3300 0 0       3300 0 9332.55
3600 0 0       3600 0 9332.55
3900 0 0       3900 0 9332.55
4200 0 0       4200 0 9332.55
4500 0 0       4500 0 9332.55
4800 0 0       4800 0 9332.55
5100 0 0       5100 0 9332.55
5400 0 0       5400 0 9332.55
5700 0 0       5700 0 9332.55
6000 0 0       6000 0 9332.55
6300 0 0       6300 0 9332.55
6600 0 0       6600 0 9332.55
6900 0 0       6900 0 9332.55
7200 0 0       7200 0 9332.55
0 300 0       0 300 9332.55
300 300 0       300 300 9332.55
600 300 0       600 300 9332.55
900 300 0       900 300 9332.55
1200 300 0       1200 300 9332.55
1500 300 0       1500 300 9332.55
1800 300 0       1800 300 9332.55
2100 300 0       2100 300 9332.55
2400 300 0       2400 300 9332.55
2700 300 0       2700 300 9332.55
3000 300 0       3000 300 9332.55
3300 300 0       3300 300 9332.55
3600 300 0       3600 300 9332.55
3900 300 0       3900 300 9332.55
4200 300 0       4200 300 9332.55
4500 300 0       4500 300 9332.55
4800 300 0       4800 300 9332.55
5100 300 0       5100 300 9332.55
5400 300 0       5400 300 9332.55
5700 300 0       5700 300 9332.55
6000 300 0       6000 300 9332.55
6300 300 0       6300 300 9332.55
6600 300 0       6600 300 9332.55
6900 300 0       6900 300 9332.55
7200 300 0       7200 300 9332.55

/

ZCORN
8973.55 9026.45 9026.45 9079.35 9079.35 9132.25 9132.25 9185.14 9185.14 9238.04 9238.04 9290.94 9290.94 9343.84 9343.84 9396.74 9396.74 9449.63 9449.63 9502.53 9502.53 9555.43 9555.43 9608.33 9608.33 9661.23 9661.23 9714.12 9714.12 9767.02 9767.02 9819.92 9819.92 9872.82 9872.82 9925.72 9925.72 9978.61 9978.61 10031.5 10031.5 10084.4 10084.4 10137.3 10137.3 10190.2 10190.2 10243.1 8973.55 9026.45 9026.45 9079.35 9079.35 9132.25 9132.25 9185.14 9185.14 9238.04 9238.04 9290.94 9290.94 9343.84 9343.84 9396.74 9396.74 9449.63 9449.63 9502.53 9502.53 9555.43 9555.43 9608.33 9608.33 9661.23 9661.23 9714.12 9714.12 9767.02 9767.02 9819.92 9819.92 9872.82 9872.82 9925.72 9925.72 9978.61 9978.61 10031.5 10031.5 10084.4 10084.4 10137.3 10137.3 10190.2 10190.2 10243.1
8993.55 9046.45 9046.45 9099.35 9099.35 9152.25 9152.25 9205.14 9205.14 9258.04 9258.04 9310.94 9310.94 9363.84 9363.84 9416.74 9416.74 9469.63 9469.63 9522.53 9522.53 9575.43 9575.43 9628.33 9628.33 9681.23 9681.23 9734.12 9734.12 9787.02 9787.02 9839.92 9839.92 9892.82 9892.82 9945.72 9945.72 9998.61 9998.61 10051.5 10051.5 10104.4 10104.4 10157.3 10157.3 10210.2 10210.2 10263.1 8993.55 9046.45 9046.45 9099.35 9099.35 9152.25 9152.25 9205.14 9205.14 9258.04 9258.04 9310.94 9310.94 9363.84 9363.84 9416.74 9416.74 9469.63 9469.63 9522.53 9522.53 9575.43 9575.43 9628.33 9628.33 9681.23 9681.23 9734.12 9734.12 9787.02 9787.02 9839.92 9839.92 9892.82 9892.82 9945.72 9945.72 9998.61 9998.61 10051.5 10051.5 10104.4 10104.4 10157.3 10157.3 10210.2 10210.2 10263.1
8993.55 9046.45 9046.45 9099.35 9099.35 9152.25 9152.25 9205.14 9205.14 9258.04 9258.04 9310.94 9310.94 9363.84 9363.84 9416.74 9416.74 9469.63 9469.63 9522.53 9522.53 9575.43 9575.43 9628.33 9628.33 9681.23 9681.23 9734.12 9734.12 9787.02 9787.02 9839.92 9839.92 9892.82 9892.82 9945.72 9945.72 9998.61 9998.61 10051.5 10051.5 10104.4 10104.4 10157.3 10157.3 10210.2 10210.2 10263.1 8993.55 9046.45 9046.45 9099.35 9099.35 9152.25 9152.25 9205.14 9205.14 9258.04 9258.04 9310.94 9310.94 9363.84 9363.84 9416.74 9416.74 9469.63 9469.63 9522.53 9522.53 9575.43 9575.43 9628.33 9628.33 9681.23 9681.23 9734.12 9734.12 9787.02 9787.02 9839.92 9839.92 9892.82 9892.82 9945.72 9945.72 9998.61 9998.61 10051.5 10051.5 10104.4 10104.4 10157.3 10157.3 10210.2 10210.2 10263.1
9008.55 9061.45 9061.45 9114.35 9114.35 9167.25 9167.25 9220.14 9220.14 9273.04 9273.04 9325.94 9325.94 9378.84 9378.84 9431.74 9431.74 9484.63 9484.63 9537.53 9537.53 9590.43 9590.43 9643.33 9643.33 9696.23 9696.23 9749.12 9749.12 9802.02 9802.02 9854.92 9854.92 9907.82 9907.82 9960.72 9960.72 10013.6 10013.6 10066.5 10066.5 10119.4 10119.4 10172.3 10172.3 10225.2 10225.2 10278.1 9008.55 9061.45 9061.45 9114.35 9114.35 9167.25 9167.25 9220.14 9220.14 9273.04 9273.04 9325.94 9325.94 9378.84 9378.84 9431.74 9431.74 9484.63 9484.63 9537.53 9537.53 9590.43 9590.43 9643.33 9643.33 9696.23 9696.23 9749.12 9749.12 9802.02 9802.02 9854.92 9854.92 9907.82 9907.82 9960.72 9960.72 10013.6 10013.6 10066.5 10066.5 10119.4 10119.4 10172.3 10172.3 10225.2 10225.2 10278.1
9008.55 9061.45 9061.45 9114.35 9114.35 9167.25 9167.25 9220.14 9220.14 9273.04 9273.04 9325.94 9325.94 9378.84 9378.84 9431.74 9431.74 9484.63 9484.63 9537.53 9537.53 9590.43 9590.43 9643.33 9643.33 9696.23 9696.23 9749.12 9749.12 9802.02 9802.02 9854.92 9854.92 9907.82 9907.82 9960.72 9960.72 10013.6 10013.6 10066.5 10066.5 10119.4 10119.4 10172.3 10172.3 10225.2 10225.2 10278.1 9008.55 9061.45 9061.45 9114.35 9114.35 9167.25 9167.25 9220.14 9220.14 9273.04 9273.04 9325.94 9325.94 9378.84 9378.84 9431.74 9431.74 9484.63 9484.63 9537.53 9537.53 9590.43 9590.43 9643.33 9643.33 9696.23 9696.23 9749.12 9749.12 9802.02 9802.02 9854.92 9854.92 9907.82 9907.82 9960.72 9960.72 10013.6 10013.6 10066.5 10066.5 10119.4 10119.4 10172.3 10172.3 10225.2 10225.2 10278.1
9034.55 9087.45 9087.45 9140.35 9140.35 9193.25 9193.25 9246.14 9246.14 9299.04 9299.04 9351.94 9351.94 9404.84 9404.84 9457.74 9457.74 9510.63 9510.63 9563.53 9563.53 9616.43 9616.43 9669.33 9669.33 9722.23 9722.23 9775.12 9775.12 9828.02 9828.02 9880.92 9880.92 9933.82 9933.82 9986.72 9986.72 10039.6 10039.6 10092.5 10092.5 10145.4 10145.4 10198.3 10198.3 10251.2 10251.2 10304.1 9034.55 9087.45 9087.45 9140.35 9140.35 9193.25 9193.25 9246.14 9246.14 9299.04 9299.04 9351.94 9351.94 9404.84 9404.84 9457.74 9457.74 9510.63 9510.63 9563.53 9563.53 9616.43 9616.43 9669.33 9669.33 9722.23 9722.23 9775.12 9775.12 9828.02 9828.02 9880.92 9880.92 9933.82 9933.82 9986.72 9986.72 10039.6 10039.6 10092.5 10092.5 10145.4 10145.4 10198.3 10198.3 10251.2 10251.2 10304.1
9034.55 9087.45 9087.45 9140.35 9140.35 9193.25 9193.25 9246.14 9246.14 9299.04 9299.04 9351.94 9351.94 9404.84 9404.84 9457.74 9457.74 9510.63 9510.63 9563.53 9563.53 9616.43 9616.43 9669.33 9669.33 9722.23 9722.23 9775.12 9775.12 9828.02 9828.02 9880.92 9880.92 9933.82 9933.82 9986.72 9986.72 10039.6 10039.6 10092.5 10092.5 10145.4 10145.4 10198.3 10198.3 10251.2 10251.2 10304.1 9034.55 9087.45 9087.45 9140.35 9140.35 9193.25 9193.25 9246.14 9246.14 9299.04 9299.04 9351.94 9351.94 9404.84 9404.84 9457.74 9457.74 9510.63 9510.63 9563.53 9563.53 9616.43 9616.43 9669.33 9669.33 9722.23 9722.23 9775.12 9775.12 9828.02 9828.02 9880.92 9880.92 9933.82 9933.82 9986.72 9986.72 10039.6 10039.6 10092.5 10092.5 10145.4 10145.4 10198.3 10198.3 10251.2 10251.2 10304.1
9049.55 9102.45 9102.45 9155.35 9155.35 9208.25 9208.25 9261.14 9261.14 9314.04 9314.04 9366.94 9366.94 9419.84 9419.84 9472.74 9472.74 9525.63 9525.63 9578.53 9578.53 9631.43 9631.43 9684.33 9684.33 9737.23 9737.23 9790.12 9790.12 9843.02 9843.02 9895.92 9895.92 9948.82 9948.82 10001.7 10001.7 10054.6 10054.6 10107.5 10107.5 10160.4 10160.4 10213.3 10213.3 10266.2 10266.2 10319.1 9049.55 9102.45 9102.45 9155.35 9155.35 9208.25 9208.25 9261.14 9261.14 9314.04 9314.04 9366.94 9366.94 9419.84 9419.84 9472.74 9472.74 9525.63 9525.63 9578.53 9578.53 9631.43 9631.43 9684.33 9684.33 9737.23 9737.23 9790.12 9790.12 9843.02 9843.02 9895.92 9895.92 9948.82 9948.82 10001.7 10001.7 10054.6 10054.6 10107.5 10107.5 10160.4 10160.4 10213.3 10213.3 10266.2 10266.2 10319.1
9049.55 9102.45 9102.45 9155.35 9155.35 9208.25 9208.25 9261.14 9261.14 9314.04 9314.04 9366.94 9366.94 9419.84 9419.84 9472.74 9472.74 9525.63 9525.63 9578.53 9578.53 9631.43 9631.43 9684.33 9684.33 9737.23 9737.23 9790.12 9790.12 9843.02 9843.02 9895.92 9895.92 9948.82 9948.82 10001.7 10001.7 10054.6 10054.6 10107.5 10107.5 10160.4 10160.4 10213.3 10213.3 10266.2 10266.2 10319.1 9049.55 9102.45 9102.45 9155.35 9155.35 9208.25 9208.25 9261.14 9261.14 9314.04 9314.04 9366.94 9366.94 9419.84 9419.84 9472.74 9472.74 9525.63 9525.63 9578.53 9578.53 9631.43 9631.43 9684.33 9684.33 9737.23 9737.23 9790.12 9790.12 9843.02 9843.02 9895.92 9895.92 9948.82 9948.82 10001.7 10001.7 10054.6 10054.6 10107.5 10107.5 10160.4 10160.4 10213.3 10213.3 10266.2 10266.2 10319.1
9065.55 9118.45 9118.45 9171.35 9171.35 9224.25 9224.25 9277.14 9277.14 9330.04 9330.04 9382.94 9382.94 9435.84 9435.84 9488.74 9488.74 9541.63 9541.63 9594.53 9594.53 9647.43 9647.43 9700.33 9700.33 9753.23 9753.23 9806.12 9806.12 9859.02 9859.02 9911.92 9911.92 9964.82 9964.82 10017.7 10017.7 10070.6 10070.6 10123.5 10123.5 10176.4 10176.4 10229.3 10229.3 10282.2 10282.2 10335.1 9065.55 9118.45 9118.45 9171.35 9171.35 9224.25 9224.25 9277.14 9277.14 9330.04 9330.04 9382.94 9382.94 9435.84 9435.84 9488.74 9488.74 9541.63 9541.63 9594.53 9594.53 9647.43 9647.43 9700.33 9700.33 9753.23 9753.23 9806.12 9806.12 9859.02 9859.02 9911.92 9911.92 9964.82 9964.82 10017.7 10017.7 10070.6 10070.6 10123.5 10123.5 10176.4 10176.4 10229.3 10229.3 10282.2 10282.2 10335.1
9065.55 9118.45 9118.45 9171.35 9171.35 9224.25 9224.25 9277.14 9277.14 9330.04 9330.04 9382.94 9382.94 9435.84 9435.84 9488.74 9488.74 9541.63 9541.63 9594.53 9594.53 9647.43 9647.43 9700.33 9700.33 9753.23 9753.23 9806.12 9806.12 9859.02 9859.02 9911.92 9911.92 9964.82 9964.82 10017.7 10017.7 10070.6 10070.6 10123.5 10123.5 10176.4 10176.4 10229.3 10229.3 10282.2 10282.2 10335.1 9065.55 9118.45 9118.45 9171.35 9171.35 9224.25 9224.25 9277.14 9277.14 9330.04 9330.04 9382.94 9382.94 9435.84 9435.84 9488.74 9488.74 9541.63 9541.63 9594.53 9594.53 9647.43 9647.43 9700.33 9700.33 9753.23 9753.23 9806.12 9806.12 9859.02 9859.02 9911.92 9911.92 9964.82 9964.82 10017.7 10017.7 10070.6 10070.6 10123.5 10123.5 10176.4 10176.4 10229.3 10229.3 10282.2 10282.2 10335.1
9079.55 9132.45 9132.45 9185.35 9185.35 9238.25 9238.25 9291.14 9291.14 9344.04 9344.04 9396.94 9396.94 9449.84 9449.84 9502.74 9502.74 9555.63 9555.63 9608.53 9608.53 9661.43 9661.43 9714.33 9714.33 9767.23 9767.23 9820.12 9820.12 9873.02 9873.02 9925.92 9925.92 9978.82 9978.82 10031.7 10031.7 10084.6 10084.6 10137.5 10137.5 10190.4 10190.4 10243.3 10243.3 10296.2 10296.2 10349.1 9079.55 9132.45 9132.45 9185.35 9185.35 9238.25 9238.25 9291.14 9291.14 9344.04 9344.04 9396.94 9396.94 9449.84 9449.84 9502.74 9502.74 9555.63 9555.63 9608.53 9608.53 9661.43 9661.43 9714.33 9714.33 9767.23 9767.23 9820.12 9820.12 9873.02 9873.02 9925.92 9925.92 9978.82 9978.82 10031.7 10031.7 10084.6 10084.6 10137.5 10137.5 10190.4 10190.4 10243.3 10243.3 10296.2 10296.2 10349.1
9079.55 9132.45 9132.45 9185.35 9185.35 9238.25 9238.25 9291.14 9291.14 9344.04 9344.04 9396.94 9396.94 9449.84 9449.84 9502.74 9502.74 9555.63 9555.63 9608.53 9608.53 9661.43 9661.43 9714.33 9714.33 9767.23 9767.23 9820.12 9820.12 9873.02 9873.02 9925.92 9925.92 9978.82 9978.82 10031.7 10031.7 10084.6 10084.6 10137.5 10137.5 10190.4 10190.4 10243.3 10243.3 10296.2 10296.2 10349.1 9079.55 9132.45 9132.45 9185.35 9185.35 9238.25 9238.25 9291.14 9291.14 9344.04 9344.04 9396.94 9396.94 9449.84 9449.84 9502.74 9502.74 9555.63 9555.63 9608.53 9608.53 9661.43 9661.43 9714.33 9714.33 9767.23 9767.23 9820.12 9820.12 9873.02 9873.02 9925.92 9925.92 9978.82 9978.82 10031.7 10031.7 10084.6 10084.6 10137.5 10137.5 10190.4 10190.4 10243.3 10243.3 10296.2 10296.2 10349.1
9087.55 9140.45 9140.45 9193.35 9193.35 9246.25 9246.25 9299.14 9299.14 9352.04 9352.04 9404.94 9404.94 9457.84 9457.84 9510.74 9510.74 9563.63 9563.63 9616.53 9616.53 9669.43 9669.43 9722.33 9722.33 9775.23 9775.23 9828.12 9828.12 9881.02 9881.02 9933.92 9933.92 9986.82 9986.82 10039.7 10039.7 10092.6 10092.6 10145.5 10145.5 10198.4 10198.4 10251.3 10251.3 10304.2 10304.2 10357.1 9087.55 9140.45 9140.45 9193.35 9193.35 9246.25 9246.25 9299.14 9299.14 9352.04 9352.04 9404.94 9404.94 9457.84 9457.84 9510.74 9510.74 9563.63 9563.63 9616.53 9616.53 9669.43 9669.43 9722.33 9722.33 9775.23 9775.23 9828.12 9828.12 9881.02 9881.02 9933.92 9933.92 9986.82 9986.82 10039.7 10039.7 10092.6 10092.6 10145.5 10145.5 10198.4 10198.4 10251.3 10251.3 10304.2 10304.2 10357.1
9087.55 9140.45 9140.45 9193.35 9193.35 9246.25 9246.25 9299.14 9299.14 9352.04 9352.04 9404.94 9404.94 9457.84 9457.84 9510.74 9510.74 9563.63 9563.63 9616.53 9616.53 9669.43 9669.43 9722.33 9722.33 9775.23 9775.23 9828.12 9828.12 9881.02 9881.02 9933.92 9933.92 9986.82 9986.82 10039.7 10039.7 10092.6 10092.6 10145.5 10145.5 10198.4 10198.4 10251.3 10251.3 10304.2 10304.2 10357.1 9087.55 9140.45 9140.45 9193.35 9193.35 9246.25 9246.25 9299.14 9299.14 9352.04 9352.04 9404.94 9404.94 9457.84 9457.84 9510.74 9510.74 9563.63 9563.63 9616.53 9616.53 9669.43 9669.43 9722.33 9722.33 9775.23 9775.23 9828.12 9828.12 9881.02 9881.02 9933.92 9933.92 9986.82 9986.82 10039.7 10039.7 10092.6 10092.6 10145.5 10145.5 10198.4 10198.4 10251.3 10251.3 10304.2 10304.2 10357.1
9095.55 9148.45 9148.45 9201.35 9201.35 9254.25 9254.25 9307.14 9307.14 9360.04 9360.04 9412.94 9412.94 9465.84 9465.84 9518.74 9518.74 9571.63 9571.63 9624.53 9624.53 9677.43 9677.43 9730.33 9730.33 9783.23 9783.23 9836.12 9836.12 9889.02 9889.02 9941.92 9941.92 9994.82 9994.82 10047.7 10047.7 10100.6 10100.6 10153.5 10153.5 10206.4 10206.4 10259.3 10259.3 10312.2 10312.2 10365.1 9095.55 9148.45 9148.45 9201.35 9201.35 9254.25 9254.25 9307.14 9307.14 9360.04 9360.04 9412.94 9412.94 9465.84 9465.84 9518.74 9518.74 9571.63 9571.63 9624.53 9624.53 9677.43 9677.43 9730.33 9730.33 9783.23 9783.23 9836.12 9836.12 9889.02 9889.02 9941.92 9941.92 9994.82 9994.82 10047.7 10047.7 10100.6 10100.6 10153.5 10153.5 10206.4 10206.4 10259.3 10259.3 10312.2 10312.2 10365.1
9095.55 9148.45 9148.45 9201.35 9201.35 9254.25 9254.25 9307.14 9307.14 9360.04 9360.04 9412.94 9412.94 9465.84 9465.84 9518.74 9518.74 9571.63 9571.63 9624.53 9624.53 9677.43 9677.43 9730.33 9730.33 9783.23 9783.23 9836.12 9836.12 9889.02 9889.02 9941.92 9941.92 9994.82 9994.82 10047.7 10047.7 10100.6 10100.6 10153.5 10153.5 10206.4 10206.4 10259.3 10259.3 10312.2 10312.2 10365.1 9095.55 9148.45 9148.45 9201.35 9201.35 9254.25 9254.25 9307.14 9307.14 9360.04 9360.04 9412.94 9412.94 9465.84 9465.84 9518.74 9518.74 9571.63 9571.63 9624.53 9624.53 9677.43 9677.43 9730.33 9730.33 9783.23 9783.23 9836.12 9836.12 9889.02 9889.02 9941.92 9941.92 9994.82 9994.82 10047.7 10047.7 10100.6 10100.6 10153.5 10153.5 10206.4 10206.4 10259.3 10259.3 10312.2 10312.2 10365.1
9113.55 9166.45 9166.45 9219.35 9219.35 9272.25 9272.25 9325.14 9325.14 9378.04 9378.04 9430.94 9430.94 9483.84 9483.84 9536.74 9536.74 9589.63 9589.63 9642.53 9642.53 9695.43 9695.43 9748.33 9748.33 9801.23 9801.23 9854.12 9854.12 9907.02 9907.02 9959.92 9959.92 10012.8 10012.8 10065.7 10065.7 10118.6 10118.6 10171.5 10171.5 10224.4 10224.4 10277.3 10277.3 10330.2 10330.2 10383.1 9113.55 9166.45 9166.45 9219.35 9219.35 9272.25 9272.25 9325.14 9325.14 9378.04 9378.04 9430.94 9430.94 9483.84 9483.84 9536.74 9536.74 9589.63 9589.63 9642.53 9642.53 9695.43 9695.43 9748.33 9748.33 9801.23 9801.23 9854.12 9854.12 9907.02 9907.02 9959.92 9959.92 10012.8 10012.8 10065.7 10065.7 10118.6 10118.6 10171.5 10171.5 10224.4 10224.4 10277.3 10277.3 10330.2 10330.2 10383.1
9113.55 9166.45 9166.45 9219.35 9219.35 9272.25 9272.25 9325.14 9325.14 9378.04 9378.04 9430.94 9430.94 9483.84 9483.84 9536.74 9536.74 9589.63 9589.63 9642.53 9642.53 9695.43 9695.43 9748.33 9748.33 9801.23 9801.23 9854.12 9854.12 9907.02 9907.02 9959.92 9959.92 10012.8 10012.8 10065.7 10065.7 10118.6 10118.6 10171.5 10171.5 10224.4 10224.4 10277.3 10277.3 10330.2 10330.2 10383.1 9113.55 9166.45 9166.45 9219.35 9219.35 9272.25 9272.25 9325.14 9325.14 9378.04 9378.04 9430.94 9430.94 9483.84 9483.84 9536.74 9536.74 9589.63 9589.63 9642.53 9642.53 9695.43 9695.43 9748.33 9748.33 9801.23 9801.23 9854.12 9854.12 9907.02 9907.02 9959.92 9959.92 10012.8 10012.8 10065.7 10065.7 10118.6 10118.6 10171.5 10171.5 10224.4 10224.4 10277.3 10277.3 10330.2 10330.2 10383.1
9125.55 9178.45 9178.45 9231.35 9231.35 9284.25 9284.25 9337.14 9337.14 9390.04 9390.04 9442.94 9442.94 9495.84 9495.84 9548.74 9548.74 9601.63 9601.63 9654.53 9654.53 9707.43 9707.43 9760.33 9760.33 9813.23 9813.23 9866.12 9866.12 9919.02 9919.02 9971.92 9971.92 10024.8 10024.8 10077.7 10077.7 10130.6 10130.6 10183.5 10183.5 10236.4 10236.4 10289.3 10289.3 10342.2 10342.2 10395.1 9125.55 9178.45 9178.45 9231.35 9231.35 9284.25 9284.25 9337.14 9337.14 9390.04 9390.04 9442.94 9442.94 9495.84 9495.84 9548.74 9548.74 9601.63 9601.63 9654.53 9654.53 9707.43 9707.43 9760.33 9760.33 9813.23 9813.23 9866.12 9866.12 9919.02 9919.02 9971.92 9971.92 10024.8 10024.8 10077.7 10077.7 10130.6 10130.6 10183.5 10183.5 10236.4 10236.4 10289.3 10289.3 10342.2 10342.2 10395.1
9125.55 9178.45 9178.45 9231.35 9231.35 9284.25 9284.25 9337.14 9337.14 9390.04 9390.04 9442.94 9442.94 9495.84 9495.84 9548.74 9548.74 9601.63 9601.63 9654.53 9654.53 9707.43 9707.43 9760.33 9760.33 9813.23 9813.23 9866.12 9866.12 9919.02 9919.02 9971.92 9971.92 10024.8 10024.8 10077.7 10077.7 10130.6 10130.6 10183.5 10183.5 10236.4 10236.4 10289.3 10289.3 10342.2 10342.2 10395.1 9125.55 9178.45 9178.45 9231.35 9231.35 9284.25 9284.25 9337.14 9337.14 9390.04 9390.04 9442.94 9442.94 9495.84 9495.84 9548.74 9548.74 9601.63 9601.63 9654.53 9654.53 9707.43 9707.43 9760.33 9760.33 9813.23 9813.23 9866.12 9866.12 9919.02 9919.02 9971.92 9971.92 10024.8 10024.8 10077.7 10077.7 10130.6 10130.6 10183.5 10183.5 10236.4 10236.4 10289.3 10289.3 10342.2 10342.2 10395.1
9144.55 9197.45 9197.45 9250.35 9250.35 9303.25 9303.25 9356.14 9356.14 9409.04 9409.04 9461.94 9461.94 9514.84 9514.84 9567.74 9567.74 9620.63 9620.63 9673.53 9673.53 9726.43 9726.43 9779.33 9779.33 9832.23 9832.23 9885.12 9885.12 9938.02 9938.02 9990.92 9990.92 10043.8 10043.8 10096.7 10096.7 10149.6 10149.6 10202.5 10202.5 10255.4 10255.4 10308.3 10308.3 10361.2 10361.2 10414.1 9144.55 9197.45 9197.45 9250.35 9250.35 9303.25 9303.25 9356.14 9356.14 9409.04 9409.04 9461.94 9461.94 9514.84 9514.84 9567.74 9567.74 9620.63 9620.63 9673.53 9673.53 9726.43 9726.43 9779.33 9779.33 9832.23 9832.23 9885.12 9885.12 9938.02 9938.02 9990.92 9990.92 10043.8 10043.8 10096.7 10096.7 10149.6 10149.6 10202.5 10202.5 10255.4 10255.4 10308.3 10308.3 10361.2 10361.2 10414.1
9144.55 9197.45 9197.45 9250.35 9250.35 9303.25 9303.25 9356.14 9356.14 9409.04 9409.04 9461.94 9461.94 9514.84 9514.84 9567.74 9567.74 9620.63 9620.63 9673.53 9673.53 9726.43 9726.43 9779.33 9779.33 9832.23 9832.23 9885.12 9885.12 9938.02 9938.02 9990.92 9990.92 10043.8 10043.8 10096.7 10096.7 10149.6 10149.6 10202.5 10202.5 10255.4 10255.4 10308.3 10308.3 10361.2 10361.2 10414.1 9144.55 9197.45 9197.45 9250.35 9250.35 9303.25 9303.25 9356.14 9356.14 9409.04 9409.04 9461.94 9461.94 9514.84 9514.84 9567.74 9567.74 9620.63 9620.63 9673.53 9673.53 9726.43 9726.43 9779.33 9779.33 9832.23 9832.23 9885.12 9885.12 9938.02 9938.02 9990.92 9990.92 10043.8 10043.8 10096.7 10096.7 10149.6 10149.6 10202.5 10202.5 10255.4 10255.4 10308.3 10308.3 10361.2 10361.2 10414.1
9162.55 9215.45 9215.45 9268.35 9268.35 9321.25 9321.25 9374.14 9374.14 9427.04 9427.04 9479.94 9479.94 9532.84 9532.84 9585.74 9585.74 9638.63 9638.63 9691.53 9691.53 9744.43 9744.43 9797.33 9797.33 9850.23 9850.23 9903.12 9903.12 9956.02 9956.02 10008.9 10008.9 10061.8 10061.8 10114.7 10114.7 10167.6 10167.6 10220.5 10220.5 10273.4 10273.4 10326.3 10326.3 10379.2 10379.2 10432.1 9162.55 9215.45 9215.45 9268.35 9268.35 9321.25 9321.25 9374.14 9374.14 9427.04 9427.04 9479.94 9479.94 9532.84 9532.84 9585.74 9585.74 9638.63 9638.63 9691.53 9691.53 9744.43 9744.43 9797.33 9797.33 9850.23 9850.23 9903.12 9903.12 9956.02 9956.02 10008.9 10008.9 10061.8 10061.8 10114.7 10114.7 10167.6 10167.6 10220.5 10220.5 10273.4 10273.4 10326.3 10326.3 10379.2 10379.2 10432.1
9162.55 9215.45 9215.45 9268.35 9268.35 9321.25 9321.25 9374.14 9374.14 9427.04 9427.04 9479.94 9479.94 9532.84 9532.84 9585.74 9585.74 9638.63 9638.63 9691.53 9691.53 9744.43 9744.43 9797.33 9797.33 9850.23 9850.23 9903.12 9903.12 9956.02 9956.02 10008.9 10008.9 10061.8 10061.8 10114.7 10114.7 10167.6 10167.6 10220.5 10220.5 10273.4 10273.4 10326.3 10326.3 10379.2 10379.2 10432.1 9162.55 9215.45 9215.45 9268.35 9268.35 9321.25 9321.25 9374.14 9374.14 9427.04 9427.04 9479.94 9479.94 9532.84 9532.84 9585.74 9585.74 9638.63 9638.63 9691.53 9691.53 9744.43 9744.43 9797.33 9797.33 9850.23 9850.23 9903.12 9903.12 9956.02 9956.02 10008.9 10008.9 10061.8 10061.8 10114.7 10114.7 10167.6 10167.6 10220.5 10220.5 10273.4 10273.4 10326.3 10326.3 10379.2 10379.2 10432.1
9182.55 9235.45 9235.45 9288.35 9288.35 9341.25 9341.25 9394.14 9394.14 9447.04 9447.04 9499.94 9499.94 9552.84 9552.84 9605.74 9605.74 9658.63 9658.63 9711.53 9711.53 9764.43 9764.43 9817.33 9817.33 9870.23 9870.23 9923.12 9923.12 9976.02 9976.02 10028.9 10028.9 10081.8 10081.8 10134.7 10134.7 10187.6 10187.6 10240.5 10240.5 10293.4 10293.4 10346.3 10346.3 10399.2 10399.2 10452.1 9182.55 9235.45 9235.45 9288.35 9288.35 9341.25 9341.25 9394.14 9394.14 9447.04 9447.04 9499.94 9499.94 9552.84 9552.84 9605.74 9605.74 9658.63 9658.63 9711.53 9711.53 9764.43 9764.43 9817.33 9817.33 9870.23 9870.23 9923.12 9923.12 9976.02 9976.02 10028.9 10028.9 10081.8 10081.8 10134.7 10134.7 10187.6 10187.6 10240.5 10240.5 10293.4 10293.4 10346.3 10346.3 10399.2 10399.2 10452.1
9182.55 9235.45 9235.45 9288.35 9288.35 9341.25 9341.25 9394.14 9394.14 9447.04 9447.04 9499.94 9499.94 9552.84 9552.84 9605.74 9605.74 9658.63 9658.63 9711.53 9711.53 9764.43 9764.43 9817.33 9817.33 9870.23 9870.23 9923.12 9923.12 9976.02 9976.02 10028.9 10028.9 10081.8 10081.8 10134.7 10134.7 10187.6 10187.6 10240.5 10240.5 10293.4 10293.4 10346.3 10346.3 10399.2 10399.2 10452.1 9182.55 9235.45 9235.45 9288.35 9288.35 9341.25 9341.25 9394.14 9394.14 9447.04 9447.04 9499.94 9499.94 9552.84 9552.84 9605.74 9605.74 9658.63 9658.63 9711.53 9711.53 9764.43 9764.43 9817.33 9817.33 9870.23 9870.23 9923.12 9923.12 9976.02 9976.02 10028.9 10028.9 10081.8 10081.8 10134.7 10134.7 10187.6 10187.6 10240.5 10240.5 10293.4 10293.4 10346.3 10346.3 10399.2 10399.2 10452.1
9232.55 9285.45 9285.45 9338.35 9338.35 9391.25 9391.25 9444.14 9444.14 9497.04 9497.04 9549.94 9549.94 9602.84 9602.84 9655.74 9655.74 9708.63 9708.63 9761.53 9761.53 9814.43 9814.43 9867.33 9867.33 9920.23 9920.23 9973.12 9973.12 10026.0 10026.0 10078.9 10078.9 10131.8 10131.8 10184.7 10184.7 10237.6 10237.6 10290.5 10290.5 10343.4 10343.4 10396.3 10396.3 10449.2 10449.2 10502.1 9232.55 9285.45 9285.45 9338.35 9338.35 9391.25 9391.25 9444.14 9444.14 9497.04 9497.04 9549.94 9549.94 9602.84 9602.84 9655.74 9655.74 9708.63 9708.63 9761.53 9761.53 9814.43 9814.43 9867.33 9867.33 9920.23 9920.23 9973.12 9973.12 10026.0 10026.0 10078.9 10078.9 10131.8 10131.8 10184.7 10184.7 10237.6 10237.6 10290.5 10290.5 10343.4 10343.4 10396.3 10396.3 10449.2 10449.2 10502.1
9232.55 9285.45 9285.45 9338.35 9338.35 9391.25 9391.25 9444.14 9444.14 9497.04 9497.04 9549.94 9549.94 9602.84 9602.84 9655.74 9655.74 9708.63 9708.63 9761.53 9761.53 9814.43 9814.43 9867.33 9867.33 9920.23 9920.23 9973.12 9973.12 10026.0 10026.0 10078.9 10078.9 10131.8 10131.8 10184.7 10184.7 10237.6 10237.6 10290.5 10290.5 10343.4 10343.4 10396.3 10396.3 10449.2 10449.2 10502.1 9232.55 9285.45 9285.45 9338.35 9338.35 9391.25 9391.25 9444.14 9444.14 9497.04 9497.04 9549.94 9549.94 9602.84 9602.84 9655.74 9655.74 9708.63 9708.63 9761.53 9761.53 9814.43 9814.43 9867.33 9867.33 9920.23 9920.23 9973.12 9973.12 10026.0 10026.0 10078.9 10078.9 10131.8 10131.8 10184.7 10184.7 10237.6 10237.6 10290.5 10290.5 10343.4 10343.4 10396.3 10396.3 10449.2 10449.2 10502.1
9332.55 9385.45 9385.45 9438.35 9438.35 9491.25 9491.25 9544.14 9544.14 9597.04 9597.04 9649.94 9649.94 9702.84 9702.84 9755.74 9755.74 9808.63 9808.63 9861.53 9861.53 9914.43 9914.43 9967.33 9967.33 10020.2 10020.2 10073.1 10073.1 10126.0 10126.0 10178.9 10178.9 10231.8 10231.8 10284.7 10284.7 10337.6 10337.6 10390.5 10390.5 10443.4 10443.4 10496.3 10496.3 10549.2 10549.2 10602.1 9332.55 9385.45 9385.45 9438.35 9438.35 9491.25 9491.25 9544.14 9544.14 9597.04 9597.04 9649.94 9649.94 9702.84 9702.84 9755.74 9755.74 9808.63 9808.63 9861.53 9861.53 9914.43 9914.43 9967.33 9967.33 10020.2 10020.2 10073.1 10073.1 10126.0 10126.0 10178.9 10178.9 10231.8 10231.8 10284.7 10284.7 10337.6 10337.6 10390.5 10390.5 10443.4 10443.4 10496.3 10496.3 10549.2 10549.2 10602.1

/

PORO
24*.087
24*.097
24*.111
24*.16
24*.13
24*.17
24*.17
24*.08
24*.14
24*.13
24*.12
24*.105
24*.12
24*.116
24*.157
/


PERMZ                                  -- Generated : Petrel
-- Property name in Petrel : PERMZ
  0.67 1.68 1.67 2.93 3.49 5.00 1.63 0.91 0.46 0.39 0.12 0.12 0.19 0.22
  0.36 0.44 0.38 0.72 0.68 1.83 1.17 1.26 0.96 1.24 21.31 28.57 36.19
  22.07 6.56 3.78 1.88 0.94 0.50 0.38 0.19 0.31 0.32 0.72 0.62 0.51 0.35
  0.46 0.32 0.72 0.36 0.33 0.43 0.28 0.04 0.03 7*0.01 0.03 0.04 0.08
  0.10 0.04 0.02 0.02 0.03 0.04 0.07 0.05 0.11 0.14 0.06 0.04 0.48 2.59
  12.13 11.57 3.75 0.97 0.41 0.08 0.03 0.01 0.01 0.01 0.01 0.01 0.02
  0.04 0.08 0.07 0.04 0.04 0.03 0.03 0.04 0.01 0.04 0.02 0.05 0.08 0.12
  0.22 0.21 0.10 0.09 0.09 0.11 0.16 0.11 0.10 0.29 0.42 0.61 1.46 2.07
  4.88 4.96 6.68 2.38 0.50 0.10 0.11 0.16 0.25 0.72 1.81 3.07 2.77 3.16
  4.64 9.38 4.84 1.75 0.87 1.78 2.51 2.63 1.92 2.20 1.78 1.21 0.97 0.72
  0.38 0.37 0.66 0.38 0.48 1.62 1.06 0.64 0.57 0.13 0.05 0.02 0.01 0.02
  0.01 0.01 0.02 0.05 0.11 0.14 0.15 0.14 0.13 0.12 0.05 0.36 0.49 0.35
  0.51 1.07 1.44 2.48 3.32 2.31 3.07 5.80 3.54 4.67 3.16 7.22 7.95 7.81
  5.24 4.56 4.94 3.06 2.73 2.50 2.94 0.99 0.64 0.49 0.16 0.07 0.03 0.03
  0.02 0.01 0.01 0.02 0.13 0.46 0.92 1.47 3.28 2.10 2.76 4.21 3.12 0.73
  0.35 0.26 0.26 0.59 0.44 0.24 0.14 0.07 0.02 5*0.01 0.03 0.04 0.17
  0.39 0.86 1.33 1.76 4.08 5.04 6.67 6.33 3.84 2.69 0.09 0.05 0.04 0.02
  0.03 0.03 0.10 0.11 0.13 0.25 0.24 0.28 0.17 0.17 0.13 0.06 0.04 0.03
  0.03 0.03 0.02 0.02 0.03 0.06 0.06 0.10 0.14 0.17 0.41 0.77 0.93 1.82
  1.13 0.42 0.47 0.27 0.11 0.03 0.02 0.04 0.03 0.03 0.03 0.02 0.03 0.08
  0.21 0.22 0.16 0.08 0.05 0.03 6*0.01 0.02 0.05 0.16 0.11 0.34 0.24
  0.18 0.12 0.20 0.31 0.57 0.31 0.43 0.63 0.03 0.02 0.03 0.04 0.02 0.02
  0.01 0.02 0.01 0.01 0.01 0.02 0.07 0.19 0.27 0.25 0.93 1.42 1.43 1.40
  1.22 1.11 0.95 1.68 0.23 0.18 0.09 0.10 0.18 0.09 0.06 0.04 0.08 0.29
  0.23 0.23 0.27 0.19 0.13 0.16 0.11 0.10 0.04 0.12 0.07 0.19 0.38 0.47
  /

PERMY                                  -- Generated : Petrel
-- Property name in Petrel : PERMY
  67.43 167.64 167.21 293.35 348.71 499.50 162.70 91.16 46.47 39.21
  11.86 12.09 18.63 21.51 36.23 44.16 37.72 72.00 67.82 182.54 117.37
  126.18 95.86 123.96 2131.32 2857.16 3619.39 2207.34 656.05 378.11
  187.69 94.45 49.78 37.51 18.73 31.08 31.52 71.91 61.85 50.77 34.64
  46.10 31.80 71.85 36.37 32.79 42.53 28.48 4.32 2.67 1.26 0.94 0.99
  0.83 0.78 1.25 1.43 2.85 4.33 7.60 10.44 3.61 1.78 1.70 3.01 3.87 7.24
  5.19 10.50 13.85 6.37 4.30 47.85 259.18 1213.32 1157.49 374.85 96.79
  41.46 8.06 2.50 1.04 0.70 0.33 0.66 1.25 1.53 3.53 7.90 6.96 3.68 4.02
  3.03 3.49 3.50 1.43 4.40 2.13 4.53 7.69 11.78 21.58 20.63 9.84 8.57
  9.34 10.60 16.19 11.33 9.74 28.58 42.38 60.88 145.86 206.50 488.35
  496.00 668.39 238.18 50.30 10.01 10.94 16.21 24.64 72.02 181.44 306.93
  277.22 316.29 464.08 937.70 484.21 175.47 86.97 177.89 250.80 262.77
  192.36 219.99 178.05 120.54 96.90 72.24 38.34 37.13 65.50 38.01 48.14
  161.94 105.76 63.83 56.88 13.21 4.77 1.92 1.16 1.71 1.30 1.45 2.26
  5.07 10.86 13.62 15.26 14.40 12.77 12.42 5.46 36.14 48.71 34.58 50.67
  107.42 144.27 248.06 331.84 231.50 307.18 580.19 353.69 467.23 315.85
  721.79 795.49 781.07 524.10 455.61 493.54 305.52 272.87 250.04 294.03
  98.73 64.43 48.99 15.87 6.98 2.76 2.51 1.68 1.07 0.83 2.26 13.47 46.46
  91.77 146.58 328.26 209.93 275.82 421.28 312.40 72.72 35.01 25.67
  26.10 58.81 44.27 23.93 13.63 6.65 1.64 0.82 0.88 0.82 1.03 1.36 2.97
  4.22 17.28 39.48 85.65 133.23 175.52 408.30 504.23 666.78 632.70
  384.05 268.53 9.36 4.74 4.20 2.49 2.65 3.30 10.39 10.63 12.66 25.20
  24.00 28.34 16.56 16.80 13.09 5.59 3.73 3.04 3.28 3.09 2.10 1.94 2.86
  5.89 5.91 10.38 14.12 17.24 40.87 76.64 92.57 181.62 112.80 41.85
  47.25 27.34 10.79 3.09 1.77 4.50 3.32 2.64 2.83 2.48 2.78 7.75 21.46
  22.36 15.64 8.38 5.35 2.89 1.35 1.06 1.10 0.94 0.67 0.82 2.28 5.33
  16.00 11.45 33.78 23.63 18.39 12.23 20.43 31.30 56.56 31.34 43.39
  62.96 2.54 1.70 2.84 3.56 2.38 1.79 1.45 1.88 1.01 1.13 1.34 2.37 6.65
  19.15 26.93 24.92 93.17 141.90 143.19 139.67 121.58 111.41 95.16
  167.88 22.53 17.93 8.57 10.13 17.64 8.76 6.22 3.95 8.26 28.64 23.46
  23.26 26.54 18.81 13.01 16.30 11.37 9.55 3.51 11.67 7.40 19.01 38.47
  47.05 /

PERMX                                  -- Generated : Petrel
-- Property name in Petrel : PERMX
  67.43 167.64 167.21 293.35 348.71 499.50 162.70 91.16 46.47 39.21
  11.86 12.09 18.63 21.51 36.23 44.16 37.72 72.00 67.82 182.54 117.37
  126.18 95.86 123.96 2131.32 2857.16 3619.39 2207.34 656.05 378.11
  187.69 94.45 49.78 37.51 18.73 31.08 31.52 71.91 61.85 50.77 34.64
  46.10 31.80 71.85 36.37 32.79 42.53 28.48 4.32 2.67 1.26 0.94 0.99
  0.83 0.78 1.25 1.43 2.85 4.33 7.60 10.44 3.61 1.78 1.70 3.01 3.87 7.24